8

C          1.02166       -0.35734        0.03135
H         -0.04256       -0.42451        0.03724
C          2.32070       -0.27680        0.02428
H          2.77744        0.70524       -0.06188
C          3.24021       -1.44749        0.12699
H          3.08405       -1.98331        1.06840
H          3.08406       -2.13905       -0.70674
H          4.28146       -1.11152        0.09752
