7

C          0.77769       -0.10047        0.01681
H          0.18914       -0.49813       -0.81496
H          0.18914       -0.20576        0.93272
H          0.94403        0.96578       -0.16156
C          2.05225       -0.81064        0.13561
O          3.20275       -1.46714        0.24543
H          3.95963       -0.86435        0.14459
