7

C          0.95962       -0.08750        0.00375
H          0.61287        0.47522        0.87354
H          0.61287        0.39865       -0.91104
H          0.56355       -1.10503        0.04741
C          2.45688       -0.11839        0.00508
H          2.95388        0.86545       -0.03713
O          3.11165       -1.15458        0.04954
