8

C         -0.03356        0.73491       -0.03765
H          0.02807        1.40821       -0.88361
C         -0.73532       -0.52947       -0.08656
H         -1.34017       -0.76661        0.77834
H         -1.15224       -0.80589       -1.04556
C          0.75616       -0.47284        0.06768
H          1.37859       -0.71207       -0.78380
H          1.18797       -0.66807        1.03993
