7

C          1.03305        0.11261        0.29007
H          0.50595       -0.70054        0.77509
H          0.50595        1.04005        0.09944
C          2.50131        0.03553        0.09150
H          2.80330       -0.99518       -0.11411
H          2.80339        0.65759       -0.75563
H          3.02354        0.38307        0.98692
