8

C          1.09036        0.10731        0.00776
H          0.74567       -0.93064       -0.06733
H          0.66791        0.52613        0.92983
H          0.66791        0.65449       -0.84442
C          2.62891        0.14578        0.01055
H          2.93293       -0.54254        0.81458
H          2.93293       -0.41965       -0.88419
O          2.98283        1.41738        0.10254
