7

C          1.06600       -0.00416       -0.21615
H          0.54138        0.90659        0.04123
H          0.57056       -0.76368       -0.80852
C          2.40031       -0.20271        0.22161
H          2.98294        0.48419        0.81196
O          2.99456       -1.36971       -0.14016
H          3.90596       -1.43951        0.19271
