9

C          0.72092        0.01521       -0.00285
H          0.10924       -0.32203       -0.84461
H          0.10895       -0.02975        0.90265
H          0.99477        1.05969       -0.17752
C          1.91415       -0.81682        0.13653
C          3.10737       -1.64885        0.27591
H          3.12871       -2.13515        1.25546
H          3.12877       -2.42775       -0.49175
H          4.01443       -1.04593        0.17497
