8

C          0.94718       -0.08224        0.00353
H          0.56281        0.94116       -0.04038
H          0.56281       -0.63196       -0.86081
H          0.56281       -0.55591        0.91178
C          2.45924       -0.08224        0.00353
H          2.84361        0.39144       -0.90472
H          2.84361        0.46749        0.86787
H          2.84361       -1.10564        0.04744
