7

C          1.01381        0.11657        0.31515
H          0.25941       -0.22285        1.01421
H          0.90156        1.08017       -0.16647
C          2.13787       -0.69296        0.03306
C          3.26190       -1.50250       -0.24903
H          3.16222       -2.36884       -0.89136
H          4.22833       -1.26040        0.17578
