7

C          1.06628       -0.18790        0.37470
H          0.03141       -0.28003        0.60179
C          2.48493       -0.08895        0.06642
H          2.63945        0.33796       -0.92867
H          3.00174        0.53363        0.80238
O          3.04450       -1.38928        0.09634
H          3.98806       -1.29074       -0.10987
