8

C          1.08557        0.01858        0.05474
H          0.70120       -0.80117       -0.55950
H          0.70120       -0.10349        1.07178
H          0.70120        0.96040       -0.34807
C          2.59763        0.01858        0.05474
H          2.98200       -0.92324        0.45754
H          2.98200        0.14065       -0.96230
H          2.98200        0.83833        0.66898
