8

C          1.13297        0.07343       -0.20324
H          0.67484        1.00830        0.09583
H          0.57333       -0.63017       -0.80723
C          2.47763       -0.21791        0.19721
H          2.98452        0.53062        0.80234
C          3.21893       -1.40035       -0.12750
H          2.77193       -2.18351       -0.72742
H          4.23739       -1.50877        0.22528
