7

C          1.16747        0.32700       -0.33077
H          0.15725        0.58738       -0.54064
C          2.55843       -0.02412       -0.04211
H          2.60369       -0.60199        0.88725
H          2.94340       -0.67301       -0.83611
C          3.41131        1.15897        0.07726
H          4.02624        2.02322        0.16286
