7

C          1.06253       -0.12968        0.03397
H          0.52670       -0.50706        0.91166
H          0.79085        0.92385       -0.09381
H          0.70622       -0.66861       -0.85208
C          2.53638       -0.24301        0.23509
H          3.04665        0.51358        0.82005
O          3.09822       -1.28283       -0.18135
