7

C          0.94665       -0.10225        0.00716
H          0.41395        0.83943       -0.05874
H          0.36526       -1.01616        0.07111
C          2.27743       -0.14180        0.00992
H          2.90563        0.73736       -0.05160
O          2.96024       -1.32053        0.09241
H          3.91310       -1.12205        0.07852
