8

C          0.94830        0.20074        0.01143
H          0.42687        0.34545        0.94947
H          0.42734        0.42212       -0.91178
C          2.41847        0.06601        0.00621
H          2.75827       -0.50226        0.87640
H          2.75855       -0.43041       -0.90677
O          2.95388        1.37271        0.05910
H          3.92078        1.27971        0.05544
