7

C          1.02855       -0.17036        0.28692
C          2.37939        0.25813       -0.23826
H          2.88273       -0.39767       -0.94288
C          3.04176        1.55611        0.07302
H          2.92096        2.25074       -0.76319
H          2.62279        2.01757        0.97280
H          4.11101        1.39767        0.23921
