7

O          0.93096       -0.05519        0.00824
H          0.64778       -0.97828       -0.08039
C          2.33987       -0.05833        0.00761
H          2.70137       -0.65401        0.85042
H          2.70113       -0.47991       -0.93448
O          2.80657        1.26474        0.13659
H          3.77525        1.22263        0.13527
