7

C          0.98076       -0.07940       -0.31556
H          0.17032        0.34257       -0.89722
H          0.87975       -1.07593        0.09661
C          2.16224        0.66546       -0.09581
C          3.24603        1.34881        0.10578
H          3.20194        2.41919        0.26928
H          4.21355        0.86058        0.11401
