9

C         -0.02302        0.86405       -0.07276
H         -0.12134        1.49381        0.80393
H          0.04007        1.40741       -1.00851
C         -0.73184       -0.46044       -0.07274
H         -1.31035       -0.72796        0.80396
H         -1.14894       -0.81436       -1.00848
C          0.76380       -0.40894        0.05800
H          1.35993       -0.72797       -0.78916
H          1.19852       -0.64157        1.02327
