8

C          0.82676        0.14714        0.01877
H         -0.12377        0.66436        0.08477
H          0.82400       -0.92829       -0.11844
C          1.94512        0.80203        0.10234
C          3.20574        1.54032        0.19654
H          3.28005        2.28509       -0.60140
H          3.28005        2.06086        1.15592
H          4.06009        0.86245        0.11004
