10

C          1.05363       -0.05482       -0.01406
H          0.51848        0.45758       -0.81853
H          0.78902       -1.11586       -0.04547
H          0.72205        0.34809        0.94729
C          2.52261        0.10926       -0.18146
H          3.07365       -0.62654       -0.75740
C          3.15340        1.42605        0.10286
H          2.90968        2.14399       -0.68541
H          2.81431        1.82340        1.06386
H          4.24134        1.31905        0.14598
