7

C          1.24378        0.31873       -0.02538
H          0.45736        1.03568       -0.08248
C          2.12976       -0.48910        0.03895
C          3.20943       -1.47368        0.11737
H          3.15130       -2.04122        1.05102
H          3.15131       -2.18184       -0.71469
H          4.18676       -0.98330        0.07832
